[TITLE]


Exported by WaterDesk 3.1.0

[JUNCTIONS]
;ID                 Elev            Demand          Pattern         
 J00001             0               0                                   ;
 J00002             0               0                                   ;
 J00003             0               0                                   ;
 J00004             0               0                                   ;
 J00005             0               0                                   ;
 J00006             0               0                                   ;
 J00007             0               0                                   ;
 J00008             0               0                                   ;
 J00009             0               0                                   ;
 J00010             0               100                                 ;
 J00011             0               0                                   ;
 J00012             0               0                                   ;
 J00013             0               0                                   ;
 J00014             0               0                                   ;
 J00015             0               0                                   ;
 J00016             0               0                                   ;
 J00017             0               0                                   ;
 J00018             0               0                                   ;
 J00019             0               0                                   ;
 J00020             0               100                                 ;
 J00021             0               0                                   ;
 J00022             0               0                                   ;
 J00023             0               0                                   ;
 J00024             0               0                                   ;
 J00025             0               0                                   ;
 J00026             0               0                                   ;
 J00027             0               0                                   ;
 J00028             0               0                                   ;
 J00029             0               0                                   ;
 J00030             0               200                                 ;
 J00031             0               0                                   ;
 J00032             0               0                                   ;
 J00033             0               0                                   ;
 J00034             0               0                                   ;
 J00035             0               0                                   ;
 J00036             0               0                                   ;
 J00037             0               0                                   ;
 J00038             0               0                                   ;
 J00039             0               0                                   ;
 J00040             0               0                                   ;
 J00041             0               0                                   ;
 J00042             0               0                                   ;
 J00043             0               0                                   ;
 J00044             0               0                                   ;
 J00045             0               0                                   ;
 J00046             0               0                                   ;
 J00047             0               0                                   ;
 J00048             0               0                                   ;
 J00049             0               0                                 ;
 J00050             0               300                                 ;

[RESERVOIRS]
;ID                 Head            Pattern        
 R00001             400                                 ;

[TANKS]
;ID                 Elevation       InitLevel       MinLevel        MaxLevel        Diameter        MinVol          VolCurve

[PIPES]
;ID                 Node1               Node2               Length          Diameter        Roughness       MinorLoss       Status
 P00000             R00001              J00001              25              1000            0.012           0               Open   ;
 P00001             J00001              J00002              25              1000            0.012           0               Open   ;
 P00002             J00002              J00003              25              1000            0.012           0               Open   ;
 P00003             J00003              J00004              25              1000            0.012           0               Open   ;
 P00004             J00004              J00005              25              1000            0.012           0               Open   ;
 P00005             J00005              J00006              25              1000            0.012           0               Open   ;
 P00006             J00006              J00007              25              1000            0.012           0               Open   ;
 P00007             J00007              J00008              25              1000            0.012           0               Open   ;
 P00008             J00008              J00009              25              1000            0.012           0               Open   ;
 P00009             J00009              J00010              25              1000            0.012           0               Open   ;
 P00010             J00010              J00011              25              500             0.012           0               Open   ;
 P00011             J00011              J00012              25              500             0.012           0               Open   ;
 P00012             J00012              J00013              25              500             0.012           0               Open   ;
 P00013             J00013              J00014              25              500             0.012           0               Open   ;
 P00014             J00014              J00015              25              500             0.012           0               Open   ;
 P00015             J00015              J00016              25              500             0.012           0               Open   ;
 P00016             J00016              J00017              25              500             0.012           0               Open   ;
 P00017             J00017              J00018              25              500             0.012           0               Open   ;
 P00018             J00018              J00019              25              500             0.012           0               Open   ;
 P00019             J00019              J00020              25              500             0.012           0               Open   ;
 P00020             J00010              J00021              25              800             0.012           0               Open   ;
 P00021             J00021              J00022              25              800             0.012           0               Open   ;
 P00022             J00022              J00023              25              800             0.012           0               Open   ;
 P00023             J00023              J00024              25              800             0.012           0               Open   ;
 P00024             J00024              J00025              25              800             0.012           0               Open   ;
 P00025             J00025              J00026              25              800             0.012           0               Open   ;
 P00026             J00026              J00027              25              800             0.012           0               Open   ;
 P00027             J00027              J00028              25              800             0.012           0               Open   ;
 P00028             J00028              J00029              25              800             0.012           0               Open   ;
 P00029             J00029              J00030              25              800             0.012           0               Open   ;
 P00030             J00020              J00031              25              400             0.012           0               Open   ;
 P00031             J00031              J00032              25              400             0.012           0               Open   ;
 P00032             J00032              J00033              25              400             0.012           0               Open   ;
 P00033             J00033              J00034              25              400             0.012           0               Open   ;
 P00034             J00034              J00035              25              400             0.012           0               Open   ;
 P00035             J00035              J00036              25              400             0.012           0               Open   ;
 P00036             J00036              J00037              25              400             0.012           0               Open   ;
 P00037             J00037              J00038              25              400             0.012           0               Open   ;
 P00038             J00038              J00039              25              400             0.012           0               Open   ;
 P00039             J00039              J00030              25              400             0.012           0               Open   ;
 P00040             J00030              J00040              25              600             0.012           0               Open   ;
 P00041             J00040              J00041              25              600             0.012           0               Open   ;
 P00042             J00041              J00042              25              600             0.012           0               Open   ;
 P00043             J00042              J00043              25              600             0.012           0               Open   ;
 P00044             J00043              J00044              25              600             0.012           0               Open   ;
 P00045             J00044              J00045              25              600             0.012           0               Open   ;
 P00046             J00045              J00046              25              600             0.012           0               Open   ;
 P00047             J00046              J00047              25              600             0.012           0               Open   ;
 P00048             J00047              J00048              25              600             0.012           0               Open   ;
 P00049             J00048              J00049              25              600             0.012           0               Open   ;

[PUMPS]
;ID                 Node1               Node2               Parameters

[VALVES]
;ID                 Node1               Node2               Diameter        Type    Setting         MinorLoss   
V00000             J00049              J00050            158             PRV     100000                0               ;

[TAGS]


[STATUS]
;ID                 Status/Setting

[PATTERNS]
;ID                 Multipliers

[CURVES]
;ID                 X-Value         Y-Value

[CONTROLS]

[RULES]

[ENERGY]
 Global Efficiency      1
 Global Price           0
 Demand Charge          0

[EMITTERS]
;Junction           Coefficient

[QUALITY]
;Node               InitQual

[SOURCES]
;Node               Type            Quality         Pattern

[REACTIONS]
 Order Bulk             0
 Order Tank             0
 Order Wall             1
 Global Bulk            0
 Global Wall            0
 Limiting Potential     0
 Roughness Correlation  0

[MIXING]
;Tank               Model

[TIMES]
 Duration               24:00
 Hydraulic Timestep     1:00
 Quality Timestep       0:05
 Pattern Timestep       1:00
 Pattern Start          0:00
 Report Timestep        1:00
 Report Start           0:00
 Start ClockTime        12 am
 Statistic              None

[REPORT]
 Status                 Yes

[OPTIONS]
 Units              	LPS
 Headloss           	D-W
 Specific Gravity   	1
 Viscosity          	1
 Trials             	40
 Accuracy           	0.001
 CHECKFREQ          	2
 MAXCHECK           	10
 DAMPLIMIT          	0
 Unbalanced         	Continue
 Pattern            	1
 Demand Multiplier  	1.0
 Emitter Exponent   	0.5
 Quality            	None mg/L
 Diffusivity        	1
 Tolerance          	0.01

[COORDINATES]
;Node               X-Coord             Y-Coord
 J00001             -176.417733990148   61.501477832512     
 J00002             -169.607881773399   61.501477832512     
 J00003             -162.372413793103   61.501477832512     
 J00004             -154.924137931034   61.714285714286     
 J00005             -147.263054187192   62.139901477833     
 J00006             -140.666009852217   61.288669950739     
 J00007             -131.515270935961   61.288669950739     
 J00008             -124.066995073892   61.288669950739     
 J00009             -114.703448275862   60.863054187192     
 J00010             -105.127093596059   60.437438423645     
 J00011             -98.31724137931     66.396059113301     
 J00012             -91.294581280788    71.716256157636     
 J00013             -85.76157635468     77.249261083744     
 J00014             -79.164532019704    81.505418719212     
 J00015             -74.48275862069     85.335960591133     
 J00016             -67.034482758621    90.443349753695     
 J00017             -60.437438423645    95.337931034483     
 J00018             -54.691625615764    99.594088669951     
 J00019             -48.733004926108    105.339901477832    
 J00020             -41.071921182266    111.936945812808    
 J00021             -97.67881773399     60.437438423645     
 J00022             -90.443349753695    61.288669950739     
 J00023             -84.910344827586    61.075862068966     
 J00024             -76.823645320197    61.714285714286     
 J00025             -70.439408866995    61.714285714286     
 J00026             -63.84236453202     61.075862068966     
 J00027             -56.606896551724    61.288669950739     
 J00028             -48.307389162562    61.714285714286     
 J00029             -41.284729064039    61.501477832512     
 J00030             -33.83645320197     61.075862068966     
 J00031             -38.305418719212    105.765517241379    
 J00032             -36.815763546798    100.870935960591    
 J00033             -35.326108374384    94.486699507389     
 J00034             -34.049261083744    87.67684729064      
 J00035             -32.55960591133     80.228571428571     
 J00036             -32.133990147783    74.908374384237     
 J00037             -32.133990147783    69.375369458128     
 J00038             -40.433497536946    71.077832512315     
 J00039             -36.815763546798    64.693596059113     
 J00040             -27.452216748769    61.075862068966     
 J00041             -19.365517241379    61.288669950739     
 J00042             -10.64039408867     61.501477832512     
 J00043             -2.979310344828     61.714285714286     
 J00044             6.171428571429      62.139901477833     
 J00045             15.322167487685     62.565517241379     
 J00046             24.047290640394     62.991133004926     
 J00047             31.28275862069      63.84236453202      
 J00048             41.284729064039     64.267980295567     
 J00049             51.499507389163     65.544827586207
 J00050             61.499507389163     65.544827586207
 R00001             -183.227586206897   61.501477832512     

[VERTICES]
;Link               X-Coord             Y-Coord

[END]
